Circuit: * C:\users\iross\My Documents\projects\pump-monitor\experiments\rogowski-coil\rogowski-coil-3.asc

Instance "m:u6:6": Length shorter than recommended for a level 2 MOSFET.
Instance "m:u6:5": Length shorter than recommended for a level 2 MOSFET.
Instance "m:u6:4": Length shorter than recommended for a level 2 MOSFET.
Instance "m:u6:3": Length shorter than recommended for a level 2 MOSFET.
Instance "m:u6:2": Length shorter than recommended for a level 2 MOSFET.
Instance "m:u6:1": Length shorter than recommended for a level 2 MOSFET.
Instance "m:u5:6": Length shorter than recommended for a level 2 MOSFET.
Instance "m:u5:5": Length shorter than recommended for a level 2 MOSFET.
Instance "m:u5:4": Length shorter than recommended for a level 2 MOSFET.
Instance "m:u5:3": Length shorter than recommended for a level 2 MOSFET.
Instance "m:u5:2": Length shorter than recommended for a level 2 MOSFET.
Instance "m:u5:1": Length shorter than recommended for a level 2 MOSFET.
Instance "m:u1:6": Length shorter than recommended for a level 2 MOSFET.
Instance "m:u1:5": Length shorter than recommended for a level 2 MOSFET.
Instance "m:u1:4": Length shorter than recommended for a level 2 MOSFET.
Instance "m:u1:3": Length shorter than recommended for a level 2 MOSFET.
Instance "m:u1:2": Length shorter than recommended for a level 2 MOSFET.
Instance "m:u1:1": Length shorter than recommended for a level 2 MOSFET.
Instance "m:u4:6": Length shorter than recommended for a level 2 MOSFET.
Instance "m:u4:5": Length shorter than recommended for a level 2 MOSFET.
Instance "m:u4:4": Length shorter than recommended for a level 2 MOSFET.
Instance "m:u4:3": Length shorter than recommended for a level 2 MOSFET.
Instance "m:u4:2": Length shorter than recommended for a level 2 MOSFET.
Instance "m:u4:1": Length shorter than recommended for a level 2 MOSFET.
Instance "m:u3:6": Length shorter than recommended for a level 2 MOSFET.
Instance "m:u3:5": Length shorter than recommended for a level 2 MOSFET.
Instance "m:u3:4": Length shorter than recommended for a level 2 MOSFET.
Instance "m:u3:3": Length shorter than recommended for a level 2 MOSFET.
Instance "m:u3:2": Length shorter than recommended for a level 2 MOSFET.
Instance "m:u3:1": Length shorter than recommended for a level 2 MOSFET.
Direct Newton iteration failed to find .op point.  (Use ".option noopiter" to skip.)
Starting Gmin stepping
Gmin = 10
Gmin = 1.07374
Gmin = 0.115292
Gmin = 0.0123794
Gmin = 0.00132923
vernier = 0.5
vernier = 0.25
vernier = 0.125
vernier = 0.0625
Gmin = 0.00100083
vernier = 0.03125
vernier = 0.015625
vernier = 0.0078125
vernier = 0.00390625
vernier = 0.00195313
Gmin = 0.00100083
vernier = 0.000976563
vernier = 0.000488281
Gmin = 0
Gmin stepping failed

Starting source stepping with srcstepmethod=0
Source Step = 3.0303%
Source Step = 12.1212%
Source Step = 19.697%
Source Step = 21.224%
Source Step = 21.2536%
Source Step = 21.2831%
Source Step = 21.3127%
Source Step = 21.3423%
vernier = 0.00146484
Source Step = 21.3749%
Source Step = 21.4193%
Source Step = 21.4637%
Source Step = 21.508%
Source Step = 21.5524%
vernier = 0.00219727
Source Step = 21.599%
Source Step = 21.6656%
Source Step = 21.7322%
Source Step = 21.7988%
Source Step = 21.8654%
Source Step = 21.932%
vernier = 0.0032959
Source Step = 22.0318%
Source Step = 22.1317%
Source Step = 22.2316%
Source Step = 22.3315%
Source Step = 22.4313%
vernier = 0.00494385
Source Step = 22.5762%
Source Step = 22.726%
Source Step = 22.8758%
Source Step = 23.0256%
Source Step = 23.1754%
vernier = 0.00741577
Source Step = 23.3852%
Source Step = 23.6099%
Source Step = 23.8346%
Source Step = 24.0593%
Source Step = 24.284%
vernier = 0.0111237
Source Step = 24.5874%
Source Step = 24.9245%
Source Step = 25.2616%
Source Step = 25.5987%
Source Step = 25.9357%
vernier = 0.0166855
Source Step = 26.3739%
Source Step = 26.8796%
Source Step = 27.3852%
Source Step = 27.8908%
Source Step = 28.3964%
vernier = 0.0250282
Source Step = 29.0284%
Source Step = 29.7869%
Source Step = 30.5453%
Source Step = 31.3037%
Source Step = 32.0622%
vernier = 0.0375423
Source Step = 32.9723%
Source Step = 34.1099%
Source Step = 35.2476%
Source Step = 36.3852%
Source Step = 37.1887%
Source Step = 37.2598%
Source Step = 37.3309%
Source Step = 37.402%
Source Step = 37.4731%
Source Step = 37.5442%
vernier = 0.00351959
Source Step = 37.6473%
Source Step = 37.754%
Source Step = 37.8606%
Source Step = 37.9673%
Source Step = 38.0739%
vernier = 0.00527939
Source Step = 38.2232%
Source Step = 38.3832%
Source Step = 38.5432%
Source Step = 38.7032%
Source Step = 38.8632%
vernier = 0.00791909
Source Step = 39.0791%
Source Step = 39.3191%
Source Step = 39.5591%
Source Step = 39.7991%
Source Step = 40.039%
vernier = 0.0118786
Source Step = 40.351%
Source Step = 40.711%
Source Step = 41.0709%
Source Step = 41.4309%
Source Step = 41.7908%
vernier = 0.0178179
Source Step = 42.2408%
Source Step = 42.7807%
Source Step = 43.3207%
Source Step = 43.8606%
Source Step = 44.4005%
vernier = 0.0267269
Source Step = 45.0485%
Source Step = 45.8584%
Source Step = 46.6683%
Source Step = 47.4782%
Source Step = 48.2881%
vernier = 0.0400904
Source Step = 49.2195%
Source Step = 50.4343%
Source Step = 51.6492%
Source Step = 52.8641%
Source Step = 54.0789%
vernier = 0.0601356
Source Step = 55.4153%
Source Step = 57.2376%
Source Step = 59.0598%
Source Step = 60.8821%
Source Step = 62.7044%
vernier = 0.0902034
Source Step = 64.6178%
Source Step = 67.3513%
Source Step = 70.0847%
Source Step = 72.8181%
Source Step = 75.5516%
Source Step = 78.285%
vernier = 0.135305
Source Step = 82.3852%
Source Step = 86.4853%
Source Step = 90.5855%
Source Step = 94.6856%
Source Step = 98.7858%
vernier = 0.202958
Source stepping succeeded in finding the operating point.

Heightened Def Con from 6.5e-008 to 6.6e-008
Heightened Def Con from 0.103429 to 0.103429
Heightened Def Con from 0.103429 to 0.103429
Heightened Def Con from 0.103429 to 0.103429
Heightened Def Con from 0.103429 to 0.103429
Heightened Def Con from 0.103429 to 0.103429
Heightened Def Con from 0.103429 to 0.103429
Heightened Def Con from 0.103429 to 0.103429
Heightened Def Con from 0.410104 to 0.410104
Heightened Def Con from 0.910134 to 0.910134
Heightened Def Con from 1.0301 to 1.0301
Heightened Def Con from 1.12433 to 1.12433
Heightened Def Con from 1.12433 to 1.12433
Heightened Def Con from 1.12433 +++to 1.12433
Heightened Def Con from 1.12433 to 1.12433
Heightened Def Con from 1.12433 to 1.12433

Date: Sun Oct 11 15:26:39 2020
Total elapsed time: 14.191 seconds.

tnom = 27
temp = 27
method = modified trap
totiter = 86853
traniter = 79632
tranpoints = 26488
accept = 19122
rejected = 7385
matrix size = 280
fillins = 605
solver = Normal
Thread vector: 68.3/37.3[4] 21.0/13.6[4] 23.3/17.5[4] 1.4/10.3[1]  2592/500
Matrix Compiler1: 60.41 KB object code size  25.9/15.1/[6.3]
Matrix Compiler2: 34.03 KB object code size  12.2/15.6/[2.4]

