Circuit: * C:\users\iross\My Documents\projects\pump-monitor\experiments\rogowski-coil\rogowski-coil-2.asc

Instance "m:u1:6": Length shorter than recommended for a level 2 MOSFET.
Instance "m:u1:5": Length shorter than recommended for a level 2 MOSFET.
Instance "m:u1:4": Length shorter than recommended for a level 2 MOSFET.
Instance "m:u1:3": Length shorter than recommended for a level 2 MOSFET.
Instance "m:u1:2": Length shorter than recommended for a level 2 MOSFET.
Instance "m:u1:1": Length shorter than recommended for a level 2 MOSFET.
Instance "m:u4:6": Length shorter than recommended for a level 2 MOSFET.
Instance "m:u4:5": Length shorter than recommended for a level 2 MOSFET.
Instance "m:u4:4": Length shorter than recommended for a level 2 MOSFET.
Instance "m:u4:3": Length shorter than recommended for a level 2 MOSFET.
Instance "m:u4:2": Length shorter than recommended for a level 2 MOSFET.
Instance "m:u4:1": Length shorter than recommended for a level 2 MOSFET.
Instance "m:u3:6": Length shorter than recommended for a level 2 MOSFET.
Instance "m:u3:5": Length shorter than recommended for a level 2 MOSFET.
Instance "m:u3:4": Length shorter than recommended for a level 2 MOSFET.
Instance "m:u3:3": Length shorter than recommended for a level 2 MOSFET.
Instance "m:u3:2": Length shorter than recommended for a level 2 MOSFET.
Instance "m:u3:1": Length shorter than recommended for a level 2 MOSFET.
Direct Newton iteration failed to find .op point.  (Use ".option noopiter" to skip.)
Starting Gmin stepping
Gmin = 10
Gmin = 1.07374
Gmin = 0.115292
Gmin = 0.0123794
Gmin = 0.00132923
vernier = 0.5
vernier = 0.25
vernier = 0.125
vernier = 0.0625
Gmin = 0.00100083
vernier = 0.03125
vernier = 0.015625
vernier = 0.0078125
vernier = 0.00390625
vernier = 0.00195313
Gmin = 0.00100083
vernier = 0.000976563
vernier = 0.000488281
Gmin = 0
Gmin stepping failed

Starting source stepping with srcstepmethod=0
Source Step = 3.0303%
Source Step = 6.3447%
Source Step = 6.81818%
Source Step = 7.29167%
Source Step = 7.76515%
Source Step = 8.23864%
vernier = 0.0234375
Source Step = 8.83049%
Source Step = 9.54072%
Source Step = 10.2509%
Source Step = 10.9612%
Source Step = 11.6714%
vernier = 0.0351563
Source Step = 12.5237%
Source Step = 13.589%
Source Step = 14.6544%
Source Step = 15.7197%
Source Step = 16.785%
vernier = 0.0527344
Source Step = 18.0102%
Source Step = 19.6082%
Source Step = 21.2062%
Source Step = 22.8042%
Source Step = 24.4022%
vernier = 0.0791016
Source Step = 26.16%
Source Step = 26.8941%
Source Step = 26.9316%
Source Step = 26.969%
Source Step = 27.0065%
Source Step = 27.0439%
vernier = 0.00185394
Source Step = 27.0833%
Source Step = 27.1394%
Source Step = 27.1956%
Source Step = 27.2518%
Source Step = 27.308%
Source Step = 27.3642%
vernier = 0.00278091
Source Step = 27.4484%
Source Step = 27.5327%
Source Step = 27.617%
Source Step = 27.7012%
Source Step = 27.7855%
vernier = 0.00417137
Source Step = 27.9077%
Source Step = 28.0341%
Source Step = 28.1605%
Source Step = 28.2869%
Source Step = 28.4133%
vernier = 0.00625706
Source Step = 28.5903%
Source Step = 28.7799%
Source Step = 28.9695%
Source Step = 29.1591%
Source Step = 29.3487%
vernier = 0.00938559
Source Step = 29.6047%
Source Step = 29.8891%
Source Step = 30.1735%
Source Step = 30.4579%
Source Step = 30.7423%
vernier = 0.0140784
Source Step = 31.1121%
Source Step = 31.5387%
Source Step = 31.9653%
Source Step = 32.3919%
Source Step = 32.8185%
vernier = 0.0211176
Source Step = 33.3518%
Source Step = 33.9917%
Source Step = 34.6317%
Source Step = 35.2716%
Source Step = 35.9115%
vernier = 0.0316764
Source Step = 36.6794%
Source Step = 37.6393%
Source Step = 38.5992%
Source Step = 39.5591%
Source Step = 40.519%
vernier = 0.0475145
Source Step = 41.6229%
Source Step = 43.0627%
Source Step = 44.5025%
Source Step = 45.9424%
Source Step = 47.3822%
vernier = 0.0712718
Source Step = 48.966%
Source Step = 51.1258%
Source Step = 53.2855%
Source Step = 55.4453%
Source Step = 57.605%
vernier = 0.106908
Source Step = 59.8728%
Source Step = 63.1124%
Source Step = 66.352%
Source Step = 69.5916%
Source Step = 72.8313%
Source Step = 76.0709%
vernier = 0.160362
Source Step = 78.9866%
Source Step = 80.2014%
Source Step = 81.4163%
Source Step = 82.6311%
Source Step = 83.846%
vernier = 0.0601356
Source Step = 85.2431%
Source Step = 87.0654%
Source Step = 88.8877%
Source Step = 90.71%
Source Step = 92.5323%
vernier = 0.0902034
Source Step = 94.5368%
Source Step = 97.2702%
Source Step = 100%
Source stepping succeeded in finding the operating point.


Date: Sat Oct 10 17:24:20 2020
Total elapsed time: 7.693 seconds.

tnom = 27
temp = 27
method = modified trap
totiter = 150534
traniter = 143659
tranpoints = 31964
accept = 23311
rejected = 8653
matrix size = 172
fillins = 369
solver = Normal
Thread vector: 19.7/13.5[3] 7.8/5.3[3] 20.3/6.5[3] 1.1/2.6[1]  2592/500
Matrix Compiler1: 41.88 KB object code size  9.0/7.2/[2.5]
Matrix Compiler2: 20.61 KB object code size  7.3/8.6/[1.4]

