Circuit: * C:\users\iross\My Documents\projects\pump-monitor\experiments\rogowski-coil\rogowski-coil-5.asc

Instance "m:u1:6": Length shorter than recommended for a level 2 MOSFET.
Instance "m:u1:5": Length shorter than recommended for a level 2 MOSFET.
Instance "m:u1:4": Length shorter than recommended for a level 2 MOSFET.
Instance "m:u1:3": Length shorter than recommended for a level 2 MOSFET.
Instance "m:u1:2": Length shorter than recommended for a level 2 MOSFET.
Instance "m:u1:1": Length shorter than recommended for a level 2 MOSFET.
Instance "m:u4:6": Length shorter than recommended for a level 2 MOSFET.
Instance "m:u4:5": Length shorter than recommended for a level 2 MOSFET.
Instance "m:u4:4": Length shorter than recommended for a level 2 MOSFET.
Instance "m:u4:3": Length shorter than recommended for a level 2 MOSFET.
Instance "m:u4:2": Length shorter than recommended for a level 2 MOSFET.
Instance "m:u4:1": Length shorter than recommended for a level 2 MOSFET.
Instance "m:u3:6": Length shorter than recommended for a level 2 MOSFET.
Instance "m:u3:5": Length shorter than recommended for a level 2 MOSFET.
Instance "m:u3:4": Length shorter than recommended for a level 2 MOSFET.
Instance "m:u3:3": Length shorter than recommended for a level 2 MOSFET.
Instance "m:u3:2": Length shorter than recommended for a level 2 MOSFET.
Instance "m:u3:1": Length shorter than recommended for a level 2 MOSFET.
Direct Newton iteration failed to find .op point.  (Use ".option noopiter" to skip.)
Starting Gmin stepping
Gmin = 10
Gmin = 1.07374
Gmin = 0.115292
Gmin = 0.0123794
Gmin = 0.00132923
vernier = 0.5
vernier = 0.25
vernier = 0.125
vernier = 0.0625
Gmin = 0.00100083
vernier = 0.03125
vernier = 0.015625
vernier = 0.0078125
vernier = 0.00390625
vernier = 0.00195313
Gmin = 0.00100083
vernier = 0.000976563
vernier = 0.000488281
Gmin = 0
Gmin stepping failed

Starting source stepping with srcstepmethod=0
Source Step = 3.0303%
Source Step = 33.3333%
Source Step = 63.6364%
Source Step = 93.9394%
Source Step = 96.9815%
Source Step = 97.0111%
Source Step = 97.0407%
Source Step = 97.0703%
Source Step = 97.0999%
Source Step = 97.1295%
vernier = 0.00146484
Source Step = 97.1621%
Source Step = 97.2064%
Source Step = 97.2508%
Source Step = 97.2952%
Source Step = 97.3396%
vernier = 0.00219727
Source Step = 97.3862%
Source Step = 97.4528%
Source Step = 97.5194%
Source Step = 97.586%
Source Step = 97.6526%
Source Step = 97.7191%
vernier = 0.0032959
Source Step = 97.819%
Source Step = 97.9189%
Source Step = 98.0188%
Source Step = 98.1186%
Source Step = 98.2185%
vernier = 0.00494385
Source Step = 98.3633%
Source Step = 98.5131%
Source Step = 98.663%
Source Step = 98.8128%
Source Step = 98.9626%
vernier = 0.00741577
Source Step = 99.1723%
Source Step = 99.397%
Source Step = 99.6218%
Source Step = 99.8465%
Source stepping succeeded in finding the operating point.


Date: Sat Oct 10 18:36:17 2020
Total elapsed time: 27.671 seconds.

tnom = 27
temp = 27
method = modified trap
totiter = 778102
traniter = 773069
tranpoints = 368360
accept = 268840
rejected = 99520
matrix size = 165
fillins = 290
solver = Normal
Thread vector: 43.7/17.6[3] 10.3/6.4[3] 12.3/4.1[3] 1.7/2.4[1]  2592/500
Matrix Compiler1: 28.66 KB object code size  11.5/6.4/[2.7]
Matrix Compiler2: 18.70 KB object code size  6.5/21.2/[2.0]

